1
Step 0
Ar 4.995090e+00 0.000000e+00 0.000000e+00
1
Step 1000
Ar 4.651351e+00 0.000000e+00 0.000000e+00
1
Step 2000
Ar 3.801648e+00 0.000000e+00 0.000000e+00
1
Step 3000
Ar 2.538409e+00 0.000000e+00 0.000000e+00
1
Step 4000
Ar 9.990464e-01 0.000000e+00 0.000000e+00
1
Step 5000
Ar -6.489900e-01 0.000000e+00 0.000000e+00
1
Step 6000
Ar -2.226431e+00 0.000000e+00 0.000000e+00
1
Step 7000
Ar -3.561685e+00 0.000000e+00 0.000000e+00
1
Step 8000
Ar -4.509506e+00 0.000000e+00 0.000000e+00
1
Step 9000
Ar -4.966792e+00 0.000000e+00 0.000000e+00
1
Step 10000
Ar -4.883800e+00 0.000000e+00 0.000000e+00
1
Step 11000
Ar -4.269559e+00 0.000000e+00 0.000000e+00
1
Step 12000
Ar -3.190883e+00 0.000000e+00 0.000000e+00
1
Step 13000
Ar -1.765110e+00 0.000000e+00 0.000000e+00
1
Step 14000
Ar -1.473316e-01 0.000000e+00 0.000000e+00
1
Step 15000
Ar 1.486473e+00 0.000000e+00 0.000000e+00
1
Step 16000
Ar 2.958583e+00 0.000000e+00 0.000000e+00
1
Step 17000
Ar 4.108863e+00 0.000000e+00 0.000000e+00
1
Step 18000
Ar 4.812190e+00 0.000000e+00 0.000000e+00
1
Step 19000
Ar 4.992057e+00 0.000000e+00 0.000000e+00
1
Step 20000
Ar 4.628897e+00 0.000000e+00 0.000000e+00
1
Step 21000
Ar 3.762216e+00 0.000000e+00 0.000000e+00
1
Step 22000
Ar 2.486288e+00 0.000000e+00 0.000000e+00
1
Step 23000
Ar 9.399067e-01 0.000000e+00 0.000000e+00
1
Step 24000
Ar -7.087156e-01 0.000000e+00 0.000000e+00
1
Step 25000
Ar -2.280245e+00 0.000000e+00 0.000000e+00
1
Step 26000
Ar -3.603734e+00 0.000000e+00 0.000000e+00
1
Step 27000
Ar -4.535217e+00 0.000000e+00 0.000000e+00
1
Step 28000
Ar -4.973367e+00 0.000000e+00 0.000000e+00
1
Step 29000
Ar -4.870525e+00 0.000000e+00 0.000000e+00
1
Step 30000
Ar -4.237876e+00 0.000000e+00 0.000000e+00
1
Step 31000
Ar -3.144240e+00 0.000000e+00 0.000000e+00
1
Step 32000
Ar -1.708580e+00 0.000000e+00 0.000000e+00
1
Step 33000
Ar -8.706439e-02 0.000000e+00 0.000000e+00
1
Step 34000
Ar 1.543922e+00 0.000000e+00 0.000000e+00
1
Step 35000
Ar 3.006964e+00 0.000000e+00 0.000000e+00
1
Step 36000
Ar 4.142915e+00 0.000000e+00 0.000000e+00
1
Step 37000
Ar 4.828207e+00 0.000000e+00 0.000000e+00
1
Step 38000
Ar 4.988297e+00 0.000000e+00 0.000000e+00
1
Step 39000
Ar 4.605770e+00 0.000000e+00 0.000000e+00
1
Step 40000
Ar 3.722237e+00 0.000000e+00 0.000000e+00
1
Step 41000
Ar 2.433806e+00 0.000000e+00 0.000000e+00
1
Step 42000
Ar 8.806304e-01 0.000000e+00 0.000000e+00
1
Step 43000
Ar -7.683381e-01 0.000000e+00 0.000000e+00
1
Step 44000
Ar -2.333728e+00 0.000000e+00 0.000000e+00
1
Step 45000
Ar -3.645260e+00 0.000000e+00 0.000000e+00
1
Step 46000
Ar -4.560268e+00 0.000000e+00 0.000000e+00
1
Step 47000
Ar -4.979219e+00 0.000000e+00 0.000000e+00
1
Step 48000
Ar -4.856541e+00 0.000000e+00 0.000000e+00
1
Step 49000
Ar -4.205578e+00 0.000000e+00 0.000000e+00
1
Step 50000
Ar -3.097140e+00 0.000000e+00 0.000000e+00
1
Step 51000
Ar -1.651802e+00 0.000000e+00 0.000000e+00
1
Step 52000
Ar -2.678449e-02 0.000000e+00 0.000000e+00
1
Step 53000
Ar 1.601147e+00 0.000000e+00 0.000000e+00
1
Step 54000
Ar 3.054909e+00 0.000000e+00 0.000000e+00
1
Step 55000
Ar 4.176364e+00 0.000000e+00 0.000000e+00
1
Step 56000
Ar 4.843522e+00 0.000000e+00 0.000000e+00
1
Step 57000
Ar 4.983812e+00 0.000000e+00 0.000000e+00
1
Step 58000
Ar 4.581973e+00 0.000000e+00 0.000000e+00
1
Step 59000
Ar 3.681716e+00 0.000000e+00 0.000000e+00
1
Step 60000
Ar 2.380970e+00 0.000000e+00 0.000000e+00
1
Step 61000
Ar 8.212260e-01 0.000000e+00 0.000000e+00
1
Step 62000
Ar -8.278490e-01 0.000000e+00 0.000000e+00
1
Step 63000
Ar -2.386872e+00 0.000000e+00 0.000000e+00
1
Step 64000
Ar -3.686256e+00 0.000000e+00 0.000000e+00
1
Step 65000
Ar -4.584657e+00 0.000000e+00 0.000000e+00
1
Step 66000
Ar -4.984348e+00 0.000000e+00 0.000000e+00
1
Step 67000
Ar -4.841851e+00 0.000000e+00 0.000000e+00
1
Step 68000
Ar -4.172668e+00 0.000000e+00 0.000000e+00
1
Step 69000
Ar -3.049590e+00 0.000000e+00 0.000000e+00
1
Step 70000
Ar -1.594784e+00 0.000000e+00 0.000000e+00
1
Step 71000
Ar 3.349930e-02 0.000000e+00 0.000000e+00
1
Step 72000
Ar 1.658139e+00 0.000000e+00 0.000000e+00
1
Step 73000
Ar 3.102409e+00 0.000000e+00 0.000000e+00
1
Step 74000
Ar 4.209206e+00 0.000000e+00 0.000000e+00
1
Step 75000
Ar 4.858134e+00 0.000000e+00 0.000000e+00
1
Step 76000
Ar 4.978603e+00 0.000000e+00 0.000000e+00
1
Step 77000
Ar 4.557511e+00 0.000000e+00 0.000000e+00
1
Step 78000
Ar 3.640661e+00 0.000000e+00 0.000000e+00
1
Step 79000
Ar 2.327788e+00 0.000000e+00 0.000000e+00
1
Step 80000
Ar 7.617023e-01 0.000000e+00 0.000000e+00
1
Step 81000
Ar -8.872395e-01 0.000000e+00 0.000000e+00
1
Step 82000
Ar -2.439669e+00 0.000000e+00 0.000000e+00
1
Step 83000
Ar -3.726717e+00 0.000000e+00 0.000000e+00
1
Step 84000
Ar -4.608379e+00 0.000000e+00 0.000000e+00
1
Step 85000
Ar -4.988752e+00 0.000000e+00 0.000000e+00
1
Step 86000
Ar -4.826458e+00 0.000000e+00 0.000000e+00
1
Step 87000
Ar -4.139151e+00 0.000000e+00 0.000000e+00
1
Step 88000
Ar -3.001597e+00 0.000000e+00 0.000000e+00
1
Step 89000
Ar -1.537534e+00 0.000000e+00 0.000000e+00
1
Step 90000
Ar 9.377822e-02 0.000000e+00 0.000000e+00
1
Step 91000
Ar 1.714890e+00 0.000000e+00 0.000000e+00
1
Step 92000
Ar 3.149459e+00 0.000000e+00 0.000000e+00
1
Step 93000
Ar 4.241436e+00 0.000000e+00 0.000000e+00
1
Step 94000
Ar 4.872038e+00 0.000000e+00 0.000000e+00
1
Step 95000
Ar 4.972670e+00 0.000000e+00 0.000000e+00
1
Step 96000
Ar 4.532385e+00 0.000000e+00 0.000000e+00
1
Step 97000
Ar 3.599076e+00 0.000000e+00 0.000000e+00
1
Step 98000
Ar 2.274267e+00 0.000000e+00 0.000000e+00
1
Step 99000
Ar 7.020678e-01 0.000000e+00 0.000000e+00
