1
Step 120000
Ar 4.292791e-02 0.000000e+00 0.000000e+00
1
Step 121000
Ar -3.794634e-02 0.000000e+00 0.000000e+00
1
Step 122000
Ar 4.282098e-02 0.000000e+00 0.000000e+00
1
Step 123000
Ar 5.167400e-03 0.000000e+00 0.000000e+00
1
Step 124000
Ar -1.718347e-03 0.000000e+00 0.000000e+00
1
Step 125000
Ar 1.804118e-04 0.000000e+00 0.000000e+00
1
Step 126000
Ar -2.554716e-02 0.000000e+00 0.000000e+00
1
Step 127000
Ar 2.833410e-03 0.000000e+00 0.000000e+00
1
Step 128000
Ar -7.989082e-02 0.000000e+00 0.000000e+00
1
Step 129000
Ar -3.033088e-02 0.000000e+00 0.000000e+00
1
Step 130000
Ar -6.969668e-03 0.000000e+00 0.000000e+00
1
Step 131000
Ar 4.896162e-02 0.000000e+00 0.000000e+00
1
Step 132000
Ar 4.034648e-02 0.000000e+00 0.000000e+00
1
Step 133000
Ar 7.916066e-02 0.000000e+00 0.000000e+00
1
Step 134000
Ar -3.169708e-02 0.000000e+00 0.000000e+00
1
Step 135000
Ar 1.235338e-02 0.000000e+00 0.000000e+00
1
Step 136000
Ar 3.938528e-02 0.000000e+00 0.000000e+00
1
Step 137000
Ar 2.705271e-02 0.000000e+00 0.000000e+00
1
Step 138000
Ar 1.077673e-02 0.000000e+00 0.000000e+00
1
Step 139000
Ar 1.336022e-02 0.000000e+00 0.000000e+00
1
Step 140000
Ar -3.503415e-02 0.000000e+00 0.000000e+00
1
Step 141000
Ar 2.259317e-02 0.000000e+00 0.000000e+00
1
Step 142000
Ar -5.211959e-02 0.000000e+00 0.000000e+00
1
Step 143000
Ar 3.639950e-02 0.000000e+00 0.000000e+00
1
Step 144000
Ar 2.708873e-02 0.000000e+00 0.000000e+00
1
Step 145000
Ar 6.337622e-04 0.000000e+00 0.000000e+00
1
Step 146000
Ar -6.020815e-03 0.000000e+00 0.000000e+00
1
Step 147000
Ar -1.665368e-02 0.000000e+00 0.000000e+00
1
Step 148000
Ar 2.163364e-03 0.000000e+00 0.000000e+00
1
Step 149000
Ar -4.167692e-02 0.000000e+00 0.000000e+00
1
Step 150000
Ar 2.117704e-02 0.000000e+00 0.000000e+00
1
Step 151000
Ar -5.749400e-02 0.000000e+00 0.000000e+00
1
Step 152000
Ar 9.588437e-03 0.000000e+00 0.000000e+00
1
Step 153000
Ar 7.155974e-02 0.000000e+00 0.000000e+00
1
Step 154000
Ar 6.377923e-03 0.000000e+00 0.000000e+00
1
Step 155000
Ar 2.147174e-02 0.000000e+00 0.000000e+00
1
Step 156000
Ar -5.861922e-03 0.000000e+00 0.000000e+00
1
Step 157000
Ar -1.766227e-02 0.000000e+00 0.000000e+00
1
Step 158000
Ar -1.876983e-02 0.000000e+00 0.000000e+00
1
Step 159000
Ar 4.354656e-02 0.000000e+00 0.000000e+00
1
Step 160000
Ar 2.304985e-02 0.000000e+00 0.000000e+00
1
Step 161000
Ar -1.010401e-03 0.000000e+00 0.000000e+00
1
Step 162000
Ar -2.530288e-02 0.000000e+00 0.000000e+00
1
Step 163000
Ar 4.872000e-02 0.000000e+00 0.000000e+00
1
Step 164000
Ar -3.915935e-02 0.000000e+00 0.000000e+00
1
Step 165000
Ar 4.329483e-02 0.000000e+00 0.000000e+00
1
Step 166000
Ar -8.431011e-02 0.000000e+00 0.000000e+00
1
Step 167000
Ar -1.398436e-02 0.000000e+00 0.000000e+00
1
Step 168000
Ar -3.301494e-02 0.000000e+00 0.000000e+00
1
Step 169000
Ar 1.482326e-02 0.000000e+00 0.000000e+00
1
Step 170000
Ar -1.344982e-02 0.000000e+00 0.000000e+00
1
Step 171000
Ar -2.410438e-02 0.000000e+00 0.000000e+00
1
Step 172000
Ar -6.489143e-03 0.000000e+00 0.000000e+00
1
Step 173000
Ar -5.857309e-03 0.000000e+00 0.000000e+00
1
Step 174000
Ar 1.063126e-02 0.000000e+00 0.000000e+00
1
Step 175000
Ar -1.823629e-02 0.000000e+00 0.000000e+00
1
Step 176000
Ar 3.338680e-02 0.000000e+00 0.000000e+00
1
Step 177000
Ar 5.410820e-03 0.000000e+00 0.000000e+00
1
Step 178000
Ar 6.161751e-02 0.000000e+00 0.000000e+00
1
Step 179000
Ar 4.658689e-02 0.000000e+00 0.000000e+00
1
Step 180000
Ar -1.131946e-03 0.000000e+00 0.000000e+00
1
Step 181000
Ar 1.975300e-02 0.000000e+00 0.000000e+00
1
Step 182000
Ar -1.882791e-02 0.000000e+00 0.000000e+00
1
Step 183000
Ar 2.819198e-02 0.000000e+00 0.000000e+00
1
Step 184000
Ar -2.826839e-02 0.000000e+00 0.000000e+00
1
Step 185000
Ar 3.007395e-04 0.000000e+00 0.000000e+00
1
Step 186000
Ar -1.891125e-02 0.000000e+00 0.000000e+00
1
Step 187000
Ar 3.853735e-03 0.000000e+00 0.000000e+00
1
Step 188000
Ar 2.888848e-02 0.000000e+00 0.000000e+00
1
Step 189000
Ar 1.734220e-02 0.000000e+00 0.000000e+00
1
Step 190000
Ar 1.588924e-02 0.000000e+00 0.000000e+00
1
Step 191000
Ar 9.953004e-03 0.000000e+00 0.000000e+00
1
Step 192000
Ar -4.166023e-02 0.000000e+00 0.000000e+00
1
Step 193000
Ar -3.503980e-02 0.000000e+00 0.000000e+00
1
Step 194000
Ar 3.070778e-02 0.000000e+00 0.000000e+00
1
Step 195000
Ar 4.813661e-02 0.000000e+00 0.000000e+00
1
Step 196000
Ar -2.382089e-02 0.000000e+00 0.000000e+00
1
Step 197000
Ar -1.416697e-02 0.000000e+00 0.000000e+00
1
Step 198000
Ar -7.257337e-03 0.000000e+00 0.000000e+00
1
Step 199000
Ar -6.560411e-02 0.000000e+00 0.000000e+00
1
Step 200000
Ar -7.318077e-02 0.000000e+00 0.000000e+00
1
Step 201000
Ar 3.088873e-02 0.000000e+00 0.000000e+00
1
Step 202000
Ar -2.448985e-02 0.000000e+00 0.000000e+00
1
Step 203000
Ar -2.790398e-02 0.000000e+00 0.000000e+00
1
Step 204000
Ar -1.794957e-02 0.000000e+00 0.000000e+00
1
Step 205000
Ar -7.467201e-03 0.000000e+00 0.000000e+00
1
Step 206000
Ar -3.211472e-02 0.000000e+00 0.000000e+00
1
Step 207000
Ar 3.647133e-02 0.000000e+00 0.000000e+00
1
Step 208000
Ar 5.877957e-02 0.000000e+00 0.000000e+00
1
Step 209000
Ar 2.982344e-02 0.000000e+00 0.000000e+00
1
Step 210000
Ar -3.478548e-02 0.000000e+00 0.000000e+00
1
Step 211000
Ar 1.902002e-02 0.000000e+00 0.000000e+00
1
Step 212000
Ar 3.012608e-02 0.000000e+00 0.000000e+00
1
Step 213000
Ar 3.980951e-02 0.000000e+00 0.000000e+00
1
Step 214000
Ar -1.607352e-02 0.000000e+00 0.000000e+00
1
Step 215000
Ar -2.205234e-02 0.000000e+00 0.000000e+00
1
Step 216000
Ar 3.297920e-02 0.000000e+00 0.000000e+00
1
Step 217000
Ar -3.291636e-03 0.000000e+00 0.000000e+00
1
Step 218000
Ar 5.373399e-03 0.000000e+00 0.000000e+00
1
Step 219000
Ar -2.958680e-02 0.000000e+00 0.000000e+00
1
Step 220000
Ar -4.802695e-02 0.000000e+00 0.000000e+00
1
Step 221000
Ar -2.160041e-04 0.000000e+00 0.000000e+00
1
Step 222000
Ar -2.077977e-02 0.000000e+00 0.000000e+00
1
Step 223000
Ar -1.231772e-02 0.000000e+00 0.000000e+00
1
Step 224000
Ar 1.592150e-02 0.000000e+00 0.000000e+00
1
Step 225000
Ar -1.017907e-02 0.000000e+00 0.000000e+00
1
Step 226000
Ar -2.473838e-02 0.000000e+00 0.000000e+00
1
Step 227000
Ar 4.225178e-02 0.000000e+00 0.000000e+00
1
Step 228000
Ar -6.230021e-03 0.000000e+00 0.000000e+00
1
Step 229000
Ar 2.258417e-02 0.000000e+00 0.000000e+00
1
Step 230000
Ar -3.596962e-03 0.000000e+00 0.000000e+00
1
Step 231000
Ar 5.477620e-02 0.000000e+00 0.000000e+00
1
Step 232000
Ar -7.655407e-03 0.000000e+00 0.000000e+00
1
Step 233000
Ar -4.934998e-02 0.000000e+00 0.000000e+00
1
Step 234000
Ar -1.602426e-02 0.000000e+00 0.000000e+00
1
Step 235000
Ar -1.811198e-02 0.000000e+00 0.000000e+00
1
Step 236000
Ar -6.496347e-03 0.000000e+00 0.000000e+00
1
Step 237000
Ar -2.345459e-02 0.000000e+00 0.000000e+00
1
Step 238000
Ar 1.331021e-02 0.000000e+00 0.000000e+00
1
Step 239000
Ar 2.111689e-02 0.000000e+00 0.000000e+00
1
Step 240000
Ar -4.591710e-05 0.000000e+00 0.000000e+00
1
Step 241000
Ar 2.725681e-02 0.000000e+00 0.000000e+00
1
Step 242000
Ar 7.671679e-03 0.000000e+00 0.000000e+00
1
Step 243000
Ar -4.370226e-02 0.000000e+00 0.000000e+00
1
Step 244000
Ar 3.803627e-03 0.000000e+00 0.000000e+00
1
Step 245000
Ar 5.351234e-03 0.000000e+00 0.000000e+00
1
Step 246000
Ar 4.881114e-02 0.000000e+00 0.000000e+00
1
Step 247000
Ar -2.802721e-02 0.000000e+00 0.000000e+00
1
Step 248000
Ar -9.629452e-03 0.000000e+00 0.000000e+00
1
Step 249000
Ar 2.193857e-02 0.000000e+00 0.000000e+00
1
Step 250000
Ar -6.334963e-02 0.000000e+00 0.000000e+00
1
Step 251000
Ar 1.730568e-03 0.000000e+00 0.000000e+00
1
Step 252000
Ar 4.960192e-03 0.000000e+00 0.000000e+00
1
Step 253000
Ar -2.452902e-02 0.000000e+00 0.000000e+00
1
Step 254000
Ar 2.286753e-02 0.000000e+00 0.000000e+00
1
Step 255000
Ar 2.414364e-02 0.000000e+00 0.000000e+00
1
Step 256000
Ar -2.723317e-02 0.000000e+00 0.000000e+00
1
Step 257000
Ar -5.023213e-02 0.000000e+00 0.000000e+00
1
Step 258000
Ar -8.104103e-03 0.000000e+00 0.000000e+00
1
Step 259000
Ar 4.696213e-02 0.000000e+00 0.000000e+00
1
Step 260000
Ar -4.555787e-03 0.000000e+00 0.000000e+00
1
Step 261000
Ar -7.387569e-03 0.000000e+00 0.000000e+00
1
Step 262000
Ar -3.133961e-02 0.000000e+00 0.000000e+00
1
Step 263000
Ar -1.209158e-02 0.000000e+00 0.000000e+00
1
Step 264000
Ar 3.207873e-02 0.000000e+00 0.000000e+00
1
Step 265000
Ar 2.555135e-02 0.000000e+00 0.000000e+00
1
Step 266000
Ar -1.457259e-02 0.000000e+00 0.000000e+00
1
Step 267000
Ar -1.455711e-02 0.000000e+00 0.000000e+00
1
Step 268000
Ar -2.002003e-03 0.000000e+00 0.000000e+00
1
Step 269000
Ar 2.520558e-02 0.000000e+00 0.000000e+00
1
Step 270000
Ar 2.121430e-02 0.000000e+00 0.000000e+00
1
Step 271000
Ar -3.185760e-02 0.000000e+00 0.000000e+00
1
Step 272000
Ar -4.482934e-02 0.000000e+00 0.000000e+00
1
Step 273000
Ar -5.406045e-03 0.000000e+00 0.000000e+00
1
Step 274000
Ar 1.707077e-02 0.000000e+00 0.000000e+00
1
Step 275000
Ar -3.433522e-02 0.000000e+00 0.000000e+00
1
Step 276000
Ar -5.937057e-02 0.000000e+00 0.000000e+00
1
Step 277000
Ar 2.581295e-02 0.000000e+00 0.000000e+00
1
Step 278000
Ar 3.017242e-02 0.000000e+00 0.000000e+00
1
Step 279000
Ar -1.163303e-02 0.000000e+00 0.000000e+00
1
Step 280000
Ar -4.706822e-02 0.000000e+00 0.000000e+00
1
Step 281000
Ar 8.342593e-02 0.000000e+00 0.000000e+00
1
Step 282000
Ar 1.110771e-02 0.000000e+00 0.000000e+00
1
Step 283000
Ar -1.341023e-02 0.000000e+00 0.000000e+00
1
Step 284000
Ar 2.345358e-02 0.000000e+00 0.000000e+00
1
Step 285000
Ar -3.952819e-02 0.000000e+00 0.000000e+00
1
Step 286000
Ar -3.679160e-02 0.000000e+00 0.000000e+00
1
Step 287000
Ar 6.253643e-03 0.000000e+00 0.000000e+00
1
Step 288000
Ar 1.701607e-02 0.000000e+00 0.000000e+00
1
Step 289000
Ar -5.498101e-02 0.000000e+00 0.000000e+00
1
Step 290000
Ar -4.895104e-02 0.000000e+00 0.000000e+00
1
Step 291000
Ar 5.499600e-02 0.000000e+00 0.000000e+00
1
Step 292000
Ar -2.151043e-02 0.000000e+00 0.000000e+00
1
Step 293000
Ar 5.410456e-02 0.000000e+00 0.000000e+00
1
Step 294000
Ar -2.090875e-03 0.000000e+00 0.000000e+00
1
Step 295000
Ar -2.730272e-02 0.000000e+00 0.000000e+00
1
Step 296000
Ar -2.115483e-02 0.000000e+00 0.000000e+00
1
Step 297000
Ar 9.658800e-03 0.000000e+00 0.000000e+00
1
Step 298000
Ar -1.400089e-02 0.000000e+00 0.000000e+00
1
Step 299000
Ar -1.672156e-02 0.000000e+00 0.000000e+00
1
Step 300000
Ar -2.694931e-02 0.000000e+00 0.000000e+00
1
Step 301000
Ar -1.315527e-02 0.000000e+00 0.000000e+00
1
Step 302000
Ar 4.489928e-02 0.000000e+00 0.000000e+00
1
Step 303000
Ar -3.982812e-04 0.000000e+00 0.000000e+00
1
Step 304000
Ar 3.044594e-02 0.000000e+00 0.000000e+00
1
Step 305000
Ar -1.236774e-02 0.000000e+00 0.000000e+00
1
Step 306000
Ar -3.663616e-03 0.000000e+00 0.000000e+00
1
Step 307000
Ar -4.319530e-02 0.000000e+00 0.000000e+00
1
Step 308000
Ar 1.528739e-02 0.000000e+00 0.000000e+00
1
Step 309000
Ar 4.126652e-02 0.000000e+00 0.000000e+00
1
Step 310000
Ar -1.702283e-02 0.000000e+00 0.000000e+00
1
Step 311000
Ar -3.536126e-02 0.000000e+00 0.000000e+00
1
Step 312000
Ar -1.810861e-02 0.000000e+00 0.000000e+00
1
Step 313000
Ar 5.529047e-03 0.000000e+00 0.000000e+00
1
Step 314000
Ar -3.363443e-02 0.000000e+00 0.000000e+00
1
Step 315000
Ar -3.817808e-02 0.000000e+00 0.000000e+00
1
Step 316000
Ar -8.320173e-03 0.000000e+00 0.000000e+00
1
Step 317000
Ar 3.355998e-02 0.000000e+00 0.000000e+00
1
Step 318000
Ar -3.858856e-02 0.000000e+00 0.000000e+00
1
Step 319000
Ar -3.341903e-02 0.000000e+00 0.000000e+00
1
Step 320000
Ar -3.624579e-03 0.000000e+00 0.000000e+00
1
Step 321000
Ar 3.623517e-02 0.000000e+00 0.000000e+00
1
Step 322000
Ar -3.195059e-02 0.000000e+00 0.000000e+00
1
Step 323000
Ar 2.036416e-02 0.000000e+00 0.000000e+00
1
Step 324000
Ar -5.936137e-02 0.000000e+00 0.000000e+00
1
Step 325000
Ar -1.324341e-02 0.000000e+00 0.000000e+00
1
Step 326000
Ar -5.315296e-02 0.000000e+00 0.000000e+00
1
Step 327000
Ar 3.211691e-03 0.000000e+00 0.000000e+00
1
Step 328000
Ar -2.317249e-02 0.000000e+00 0.000000e+00
1
Step 329000
Ar 1.174742e-02 0.000000e+00 0.000000e+00
1
Step 330000
Ar -9.579077e-03 0.000000e+00 0.000000e+00
1
Step 331000
Ar -1.061768e-02 0.000000e+00 0.000000e+00
1
Step 332000
Ar 1.530611e-02 0.000000e+00 0.000000e+00
1
Step 333000
Ar -3.432329e-02 0.000000e+00 0.000000e+00
1
Step 334000
Ar -2.235136e-02 0.000000e+00 0.000000e+00
1
Step 335000
Ar -2.771554e-02 0.000000e+00 0.000000e+00
1
Step 336000
Ar 2.376773e-02 0.000000e+00 0.000000e+00
1
Step 337000
Ar 1.918793e-02 0.000000e+00 0.000000e+00
1
Step 338000
Ar 1.353498e-02 0.000000e+00 0.000000e+00
1
Step 339000
Ar -4.865100e-02 0.000000e+00 0.000000e+00
1
Step 340000
Ar 1.244352e-02 0.000000e+00 0.000000e+00
1
Step 341000
Ar -8.226609e-03 0.000000e+00 0.000000e+00
1
Step 342000
Ar -6.040207e-03 0.000000e+00 0.000000e+00
1
Step 343000
Ar -3.132352e-02 0.000000e+00 0.000000e+00
1
Step 344000
Ar -4.508072e-02 0.000000e+00 0.000000e+00
1
Step 345000
Ar 2.387943e-03 0.000000e+00 0.000000e+00
1
Step 346000
Ar -3.244423e-02 0.000000e+00 0.000000e+00
1
Step 347000
Ar -2.228101e-02 0.000000e+00 0.000000e+00
1
Step 348000
Ar 4.761601e-02 0.000000e+00 0.000000e+00
1
Step 349000
Ar 2.110504e-02 0.000000e+00 0.000000e+00
1
Step 350000
Ar -2.938050e-02 0.000000e+00 0.000000e+00
1
Step 351000
Ar 4.636746e-02 0.000000e+00 0.000000e+00
1
Step 352000
Ar 2.441132e-02 0.000000e+00 0.000000e+00
1
Step 353000
Ar 2.371008e-02 0.000000e+00 0.000000e+00
1
Step 354000
Ar 2.438649e-02 0.000000e+00 0.000000e+00
1
Step 355000
Ar 1.776034e-02 0.000000e+00 0.000000e+00
1
Step 356000
Ar -1.700220e-02 0.000000e+00 0.000000e+00
1
Step 357000
Ar -1.229706e-02 0.000000e+00 0.000000e+00
1
Step 358000
Ar 4.035213e-03 0.000000e+00 0.000000e+00
1
Step 359000
Ar -2.712458e-02 0.000000e+00 0.000000e+00
1
Step 360000
Ar -8.378058e-03 0.000000e+00 0.000000e+00
1
Step 361000
Ar -1.106911e-02 0.000000e+00 0.000000e+00
1
Step 362000
Ar -4.976990e-02 0.000000e+00 0.000000e+00
1
Step 363000
Ar -4.444393e-02 0.000000e+00 0.000000e+00
1
Step 364000
Ar 8.263472e-02 0.000000e+00 0.000000e+00
1
Step 365000
Ar -6.311081e-03 0.000000e+00 0.000000e+00
1
Step 366000
Ar 3.109295e-02 0.000000e+00 0.000000e+00
1
Step 367000
Ar -5.217240e-02 0.000000e+00 0.000000e+00
1
Step 368000
Ar -6.537745e-03 0.000000e+00 0.000000e+00
1
Step 369000
Ar 1.994028e-02 0.000000e+00 0.000000e+00
1
Step 370000
Ar 1.059659e-02 0.000000e+00 0.000000e+00
1
Step 371000
Ar 4.364812e-02 0.000000e+00 0.000000e+00
1
Step 372000
Ar 4.316168e-02 0.000000e+00 0.000000e+00
1
Step 373000
Ar 1.593239e-02 0.000000e+00 0.000000e+00
1
Step 374000
Ar 1.995894e-02 0.000000e+00 0.000000e+00
1
Step 375000
Ar -3.862102e-02 0.000000e+00 0.000000e+00
1
Step 376000
Ar -7.217237e-02 0.000000e+00 0.000000e+00
1
Step 377000
Ar -5.767573e-02 0.000000e+00 0.000000e+00
1
Step 378000
Ar -7.410000e-02 0.000000e+00 0.000000e+00
1
Step 379000
Ar 7.823954e-03 0.000000e+00 0.000000e+00
1
Step 380000
Ar 4.113788e-04 0.000000e+00 0.000000e+00
1
Step 381000
Ar 3.658397e-02 0.000000e+00 0.000000e+00
1
Step 382000
Ar -2.440495e-02 0.000000e+00 0.000000e+00
1
Step 383000
Ar 9.967979e-03 0.000000e+00 0.000000e+00
1
Step 384000
Ar -1.665318e-02 0.000000e+00 0.000000e+00
1
Step 385000
Ar 1.290636e-02 0.000000e+00 0.000000e+00
1
Step 386000
Ar -4.527337e-02 0.000000e+00 0.000000e+00
1
Step 387000
Ar -8.496551e-03 0.000000e+00 0.000000e+00
1
Step 388000
Ar -4.760139e-03 0.000000e+00 0.000000e+00
1
Step 389000
Ar 2.414740e-02 0.000000e+00 0.000000e+00
1
Step 390000
Ar 2.279447e-02 0.000000e+00 0.000000e+00
1
Step 391000
Ar -5.493235e-02 0.000000e+00 0.000000e+00
1
Step 392000
Ar 4.062239e-02 0.000000e+00 0.000000e+00
1
Step 393000
Ar -2.178400e-02 0.000000e+00 0.000000e+00
1
Step 394000
Ar 1.318401e-02 0.000000e+00 0.000000e+00
1
Step 395000
Ar 1.706490e-02 0.000000e+00 0.000000e+00
1
Step 396000
Ar 4.265273e-02 0.000000e+00 0.000000e+00
1
Step 397000
Ar -5.429697e-03 0.000000e+00 0.000000e+00
1
Step 398000
Ar 5.934884e-02 0.000000e+00 0.000000e+00
1
Step 399000
Ar 1.191056e-02 0.000000e+00 0.000000e+00
1
Step 400000
Ar 1.529323e-02 0.000000e+00 0.000000e+00
1
Step 401000
Ar 3.195960e-02 0.000000e+00 0.000000e+00
1
Step 402000
Ar -1.260922e-02 0.000000e+00 0.000000e+00
1
Step 403000
Ar 2.119089e-02 0.000000e+00 0.000000e+00
1
Step 404000
Ar -2.436779e-02 0.000000e+00 0.000000e+00
1
Step 405000
Ar 7.028830e-02 0.000000e+00 0.000000e+00
1
Step 406000
Ar -4.154918e-02 0.000000e+00 0.000000e+00
1
Step 407000
Ar 4.851380e-02 0.000000e+00 0.000000e+00
1
Step 408000
Ar 2.405147e-02 0.000000e+00 0.000000e+00
1
Step 409000
Ar -1.220234e-02 0.000000e+00 0.000000e+00
1
Step 410000
Ar -4.694228e-02 0.000000e+00 0.000000e+00
1
Step 411000
Ar 1.232075e-02 0.000000e+00 0.000000e+00
1
Step 412000
Ar -5.524812e-02 0.000000e+00 0.000000e+00
1
Step 413000
Ar 6.264202e-03 0.000000e+00 0.000000e+00
1
Step 414000
Ar 3.815711e-02 0.000000e+00 0.000000e+00
1
Step 415000
Ar 1.273806e-02 0.000000e+00 0.000000e+00
1
Step 416000
Ar 7.067695e-02 0.000000e+00 0.000000e+00
1
Step 417000
Ar -1.128482e-02 0.000000e+00 0.000000e+00
1
Step 418000
Ar 1.629425e-03 0.000000e+00 0.000000e+00
1
Step 419000
Ar 2.621690e-02 0.000000e+00 0.000000e+00
1
Step 420000
Ar -3.711462e-02 0.000000e+00 0.000000e+00
1
Step 421000
Ar 1.871441e-02 0.000000e+00 0.000000e+00
1
Step 422000
Ar -7.876784e-02 0.000000e+00 0.000000e+00
1
Step 423000
Ar -2.320571e-02 0.000000e+00 0.000000e+00
1
Step 424000
Ar -3.461560e-02 0.000000e+00 0.000000e+00
1
Step 425000
Ar -2.397458e-02 0.000000e+00 0.000000e+00
1
Step 426000
Ar -3.807535e-02 0.000000e+00 0.000000e+00
1
Step 427000
Ar 3.789112e-02 0.000000e+00 0.000000e+00
1
Step 428000
Ar 2.504456e-02 0.000000e+00 0.000000e+00
1
Step 429000
Ar 1.097888e-02 0.000000e+00 0.000000e+00
1
Step 430000
Ar 5.884509e-02 0.000000e+00 0.000000e+00
1
Step 431000
Ar -2.914304e-02 0.000000e+00 0.000000e+00
1
Step 432000
Ar 5.793591e-03 0.000000e+00 0.000000e+00
1
Step 433000
Ar 6.431415e-02 0.000000e+00 0.000000e+00
1
Step 434000
Ar -1.321543e-02 0.000000e+00 0.000000e+00
1
Step 435000
Ar -3.413876e-02 0.000000e+00 0.000000e+00
1
Step 436000
Ar -4.881246e-03 0.000000e+00 0.000000e+00
1
Step 437000
Ar 5.891054e-02 0.000000e+00 0.000000e+00
1
Step 438000
Ar -1.525188e-03 0.000000e+00 0.000000e+00
1
Step 439000
Ar 1.366466e-02 0.000000e+00 0.000000e+00
1
Step 440000
Ar -1.451616e-02 0.000000e+00 0.000000e+00
1
Step 441000
Ar 3.201202e-02 0.000000e+00 0.000000e+00
1
Step 442000
Ar -1.464136e-02 0.000000e+00 0.000000e+00
1
Step 443000
Ar -3.810036e-02 0.000000e+00 0.000000e+00
1
Step 444000
Ar -1.966003e-03 0.000000e+00 0.000000e+00
1
Step 445000
Ar 1.044237e-02 0.000000e+00 0.000000e+00
1
Step 446000
Ar -1.578121e-03 0.000000e+00 0.000000e+00
1
Step 447000
Ar -9.967973e-03 0.000000e+00 0.000000e+00
1
Step 448000
Ar -3.206946e-02 0.000000e+00 0.000000e+00
1
Step 449000
Ar -7.434866e-02 0.000000e+00 0.000000e+00
1
Step 450000
Ar 1.851897e-03 0.000000e+00 0.000000e+00
1
Step 451000
Ar -7.802742e-02 0.000000e+00 0.000000e+00
1
Step 452000
Ar 7.070006e-02 0.000000e+00 0.000000e+00
1
Step 453000
Ar -2.328870e-02 0.000000e+00 0.000000e+00
1
Step 454000
Ar -5.602386e-02 0.000000e+00 0.000000e+00
1
Step 455000
Ar -3.819195e-03 0.000000e+00 0.000000e+00
1
Step 456000
Ar 5.294483e-02 0.000000e+00 0.000000e+00
1
Step 457000
Ar -1.077581e-02 0.000000e+00 0.000000e+00
1
Step 458000
Ar 8.190918e-03 0.000000e+00 0.000000e+00
1
Step 459000
Ar -1.853240e-02 0.000000e+00 0.000000e+00
1
Step 460000
Ar 2.114153e-03 0.000000e+00 0.000000e+00
1
Step 461000
Ar 1.851904e-02 0.000000e+00 0.000000e+00
1
Step 462000
Ar -7.220241e-03 0.000000e+00 0.000000e+00
1
Step 463000
Ar -9.558433e-02 0.000000e+00 0.000000e+00
1
Step 464000
Ar -1.100051e-02 0.000000e+00 0.000000e+00
1
Step 465000
Ar 7.288715e-03 0.000000e+00 0.000000e+00
1
Step 466000
Ar -6.496783e-02 0.000000e+00 0.000000e+00
1
Step 467000
Ar -1.134708e-03 0.000000e+00 0.000000e+00
1
Step 468000
Ar -4.366287e-02 0.000000e+00 0.000000e+00
1
Step 469000
Ar 3.404982e-02 0.000000e+00 0.000000e+00
1
Step 470000
Ar -3.122419e-02 0.000000e+00 0.000000e+00
1
Step 471000
Ar -1.193964e-02 0.000000e+00 0.000000e+00
1
Step 472000
Ar 3.578534e-02 0.000000e+00 0.000000e+00
1
Step 473000
Ar -1.295719e-02 0.000000e+00 0.000000e+00
1
Step 474000
Ar -3.432327e-02 0.000000e+00 0.000000e+00
1
Step 475000
Ar 1.012635e-02 0.000000e+00 0.000000e+00
1
Step 476000
Ar -5.435160e-03 0.000000e+00 0.000000e+00
1
Step 477000
Ar -6.464883e-03 0.000000e+00 0.000000e+00
1
Step 478000
Ar -4.807919e-02 0.000000e+00 0.000000e+00
1
Step 479000
Ar 1.577221e-02 0.000000e+00 0.000000e+00
1
Step 480000
Ar 2.302522e-02 0.000000e+00 0.000000e+00
1
Step 481000
Ar -2.869541e-02 0.000000e+00 0.000000e+00
1
Step 482000
Ar 1.877577e-02 0.000000e+00 0.000000e+00
1
Step 483000
Ar -4.063786e-02 0.000000e+00 0.000000e+00
1
Step 484000
Ar 4.936806e-02 0.000000e+00 0.000000e+00
1
Step 485000
Ar 3.282574e-02 0.000000e+00 0.000000e+00
1
Step 486000
Ar 1.810285e-02 0.000000e+00 0.000000e+00
1
Step 487000
Ar 3.674737e-02 0.000000e+00 0.000000e+00
1
Step 488000
Ar 1.815913e-02 0.000000e+00 0.000000e+00
1
Step 489000
Ar 2.479364e-02 0.000000e+00 0.000000e+00
1
Step 490000
Ar -2.661139e-02 0.000000e+00 0.000000e+00
1
Step 491000
Ar 3.655726e-02 0.000000e+00 0.000000e+00
1
Step 492000
Ar 4.135966e-02 0.000000e+00 0.000000e+00
1
Step 493000
Ar 5.927973e-02 0.000000e+00 0.000000e+00
1
Step 494000
Ar -1.408335e-02 0.000000e+00 0.000000e+00
1
Step 495000
Ar 4.828192e-02 0.000000e+00 0.000000e+00
1
Step 496000
Ar -1.708474e-02 0.000000e+00 0.000000e+00
1
Step 497000
Ar -3.836879e-02 0.000000e+00 0.000000e+00
1
Step 498000
Ar -5.611574e-03 0.000000e+00 0.000000e+00
1
Step 499000
Ar -2.797018e-02 0.000000e+00 0.000000e+00
