1
Step 0
Ar 4.996393e+00 0.000000e+00 0.000000e+00
1
Step 1000
Ar 4.744351e+00 0.000000e+00 0.000000e+00
1
Step 2000
Ar 4.114415e+00 0.000000e+00 0.000000e+00
1
Step 3000
Ar 3.156759e+00 0.000000e+00 0.000000e+00
1
Step 4000
Ar 1.947662e+00 0.000000e+00 0.000000e+00
1
Step 5000
Ar 5.834303e-01 0.000000e+00 0.000000e+00
1
Step 6000
Ar -8.272721e-01 0.000000e+00 0.000000e+00
1
Step 7000
Ar -2.172081e+00 0.000000e+00 0.000000e+00
1
Step 8000
Ar -3.343880e+00 0.000000e+00 0.000000e+00
1
Step 9000
Ar -4.249334e+00 0.000000e+00 0.000000e+00
1
Step 10000
Ar -4.816322e+00 0.000000e+00 0.000000e+00
1
Step 11000
Ar -4.999682e+00 0.000000e+00 0.000000e+00
1
Step 12000
Ar -4.784810e+00 0.000000e+00 0.000000e+00
1
Step 13000
Ar -4.188820e+00 0.000000e+00 0.000000e+00
1
Step 14000
Ar -3.259184e+00 0.000000e+00 0.000000e+00
1
Step 15000
Ar -2.069948e+00 0.000000e+00 0.000000e+00
1
Step 16000
Ar -7.158386e-01 0.000000e+00 0.000000e+00
1
Step 17000
Ar 6.952889e-01 0.000000e+00 0.000000e+00
1
Step 18000
Ar 2.051036e+00 0.000000e+00 0.000000e+00
1
Step 19000
Ar 3.243414e+00 0.000000e+00 0.000000e+00
1
Step 20000
Ar 4.177449e+00 0.000000e+00 0.000000e+00
1
Step 21000
Ar 4.778744e+00 0.000000e+00 0.000000e+00
1
Step 22000
Ar 4.999405e+00 0.000000e+00 0.000000e+00
1
Step 23000
Ar 4.821855e+00 0.000000e+00 0.000000e+00
1
Step 24000
Ar 4.260237e+00 0.000000e+00 0.000000e+00
1
Step 25000
Ar 3.359284e+00 0.000000e+00 0.000000e+00
1
Step 26000
Ar 2.190759e+00 0.000000e+00 0.000000e+00
1
Step 27000
Ar 8.477362e-01 0.000000e+00 0.000000e+00
1
Step 28000
Ar -5.628097e-01 0.000000e+00 0.000000e+00
1
Step 29000
Ar -1.928527e+00 0.000000e+00 0.000000e+00
1
Step 30000
Ar -3.140634e+00 0.000000e+00 0.000000e+00
1
Step 31000
Ar -4.102585e+00 0.000000e+00 0.000000e+00
1
Step 32000
Ar -4.737758e+00 0.000000e+00 0.000000e+00
1
Step 33000
Ar -4.995561e+00 0.000000e+00 0.000000e+00
1
Step 34000
Ar -4.855461e+00 0.000000e+00 0.000000e+00
1
Step 35000
Ar -4.328615e+00 0.000000e+00 0.000000e+00
1
Step 36000
Ar -3.456988e+00 0.000000e+00 0.000000e+00
1
Step 37000
Ar -2.310006e+00 0.000000e+00 0.000000e+00
1
Step 38000
Ar -9.790291e-01 0.000000e+00 0.000000e+00
1
Step 39000
Ar 4.299291e-01 0.000000e+00 0.000000e+00
1
Step 40000
Ar 1.804643e+00 0.000000e+00 0.000000e+00
1
Step 41000
Ar 3.035614e+00 0.000000e+00 0.000000e+00
1
Step 42000
Ar 4.024794e+00 0.000000e+00 0.000000e+00
1
Step 43000
Ar 4.693392e+00 0.000000e+00 0.000000e+00
1
Step 44000
Ar 4.988155e+00 0.000000e+00 0.000000e+00
1
Step 45000
Ar 4.885603e+00 0.000000e+00 0.000000e+00
1
Step 46000
Ar 4.393905e+00 0.000000e+00 0.000000e+00
1
Step 47000
Ar 3.552226e+00 0.000000e+00 0.000000e+00
1
Step 48000
Ar 2.427606e+00 0.000000e+00 0.000000e+00
1
Step 49000
Ar 1.109624e+00 0.000000e+00 0.000000e+00
1
Step 50000
Ar -2.967418e-01 0.000000e+00 0.000000e+00
1
Step 51000
Ar -1.679471e+00 0.000000e+00 0.000000e+00
1
Step 52000
Ar -2.928428e+00 0.000000e+00 0.000000e+00
1
Step 53000
Ar -3.944132e+00 0.000000e+00 0.000000e+00
1
Step 54000
Ar -4.645678e+00 0.000000e+00 0.000000e+00
1
Step 55000
Ar -4.977190e+00 0.000000e+00 0.000000e+00
1
Step 56000
Ar -4.912260e+00 0.000000e+00 0.000000e+00
1
Step 57000
Ar -4.456061e+00 0.000000e+00 0.000000e+00
1
Step 58000
Ar -3.644930e+00 0.000000e+00 0.000000e+00
1
Step 59000
Ar -2.543474e+00 0.000000e+00 0.000000e+00
1
Step 60000
Ar -1.239427e+00 0.000000e+00 0.000000e+00
1
Step 61000
Ar 1.633429e-01 0.000000e+00 0.000000e+00
1
Step 62000
Ar 1.553102e+00 0.000000e+00 0.000000e+00
1
Step 63000
Ar 2.819154e+00 0.000000e+00 0.000000e+00
1
Step 64000
Ar 3.860656e+00 0.000000e+00 0.000000e+00
1
Step 65000
Ar 4.594651e+00 0.000000e+00 0.000000e+00
1
Step 66000
Ar 4.962674e+00 0.000000e+00 0.000000e+00
1
Step 67000
Ar 4.935413e+00 0.000000e+00 0.000000e+00
1
Step 68000
Ar 4.515038e+00 0.000000e+00 0.000000e+00
1
Step 69000
Ar 3.735034e+00 0.000000e+00 0.000000e+00
1
Step 70000
Ar 2.657528e+00 0.000000e+00 0.000000e+00
1
Step 71000
Ar 1.368346e+00 0.000000e+00 0.000000e+00
1
Step 72000
Ar -2.982740e-02 0.000000e+00 0.000000e+00
1
Step 73000
Ar -1.425625e+00 0.000000e+00 0.000000e+00
1
Step 74000
Ar -2.707869e+00 0.000000e+00 0.000000e+00
1
Step 75000
Ar -3.774427e+00 0.000000e+00 0.000000e+00
1
Step 76000
Ar -4.540346e+00 0.000000e+00 0.000000e+00
1
Step 77000
Ar -4.944619e+00 0.000000e+00 0.000000e+00
1
Step 78000
Ar -4.955046e+00 0.000000e+00 0.000000e+00
1
Step 79000
Ar -4.570795e+00 0.000000e+00 0.000000e+00
1
Step 80000
Ar -3.822474e+00 0.000000e+00 0.000000e+00
1
Step 81000
Ar -2.769686e+00 0.000000e+00 0.000000e+00
1
Step 82000
Ar -1.496289e+00 0.000000e+00 0.000000e+00
1
Step 83000
Ar -1.037094e-01 0.000000e+00 0.000000e+00
1
Step 84000
Ar 1.297130e+00 0.000000e+00 0.000000e+00
1
Step 85000
Ar 2.594652e+00 0.000000e+00 0.000000e+00
1
Step 86000
Ar 3.685505e+00 0.000000e+00 0.000000e+00
1
Step 87000
Ar 4.482802e+00 0.000000e+00 0.000000e+00
1
Step 88000
Ar 4.923037e+00 0.000000e+00 0.000000e+00
1
Step 89000
Ar 4.971144e+00 0.000000e+00 0.000000e+00
1
Step 90000
Ar 4.623291e+00 0.000000e+00 0.000000e+00
1
Step 91000
Ar 3.907187e+00 0.000000e+00 0.000000e+00
1
Step 92000
Ar 2.879868e+00 0.000000e+00 0.000000e+00
1
Step 93000
Ar 1.623164e+00 0.000000e+00 0.000000e+00
1
Step 94000
Ar 2.371721e-01 0.000000e+00 0.000000e+00
1
Step 95000
Ar -1.167711e+00 0.000000e+00 0.000000e+00
1
Step 96000
Ar -2.479584e+00 0.000000e+00 0.000000e+00
1
Step 97000
Ar -3.593954e+00 0.000000e+00 0.000000e+00
1
Step 98000
Ar -4.422060e+00 0.000000e+00 0.000000e+00
1
Step 99000
Ar -4.897942e+00 0.000000e+00 0.000000e+00
