1
Step 120000
Ar -9.688700e-03 0.000000e+00 0.000000e+00
1
Step 121000
Ar -1.828856e-02 0.000000e+00 0.000000e+00
1
Step 122000
Ar -3.011965e-02 0.000000e+00 0.000000e+00
1
Step 123000
Ar 7.994291e-03 0.000000e+00 0.000000e+00
1
Step 124000
Ar 3.496005e-02 0.000000e+00 0.000000e+00
1
Step 125000
Ar 5.173633e-02 0.000000e+00 0.000000e+00
1
Step 126000
Ar 4.602374e-02 0.000000e+00 0.000000e+00
1
Step 127000
Ar -4.116094e-02 0.000000e+00 0.000000e+00
1
Step 128000
Ar -2.266388e-02 0.000000e+00 0.000000e+00
1
Step 129000
Ar 8.396405e-02 0.000000e+00 0.000000e+00
1
Step 130000
Ar 2.112214e-02 0.000000e+00 0.000000e+00
1
Step 131000
Ar -6.004756e-03 0.000000e+00 0.000000e+00
1
Step 132000
Ar -4.747846e-02 0.000000e+00 0.000000e+00
1
Step 133000
Ar 4.473799e-02 0.000000e+00 0.000000e+00
1
Step 134000
Ar -4.229736e-02 0.000000e+00 0.000000e+00
1
Step 135000
Ar 5.091488e-02 0.000000e+00 0.000000e+00
1
Step 136000
Ar 4.242316e-02 0.000000e+00 0.000000e+00
1
Step 137000
Ar 3.561205e-02 0.000000e+00 0.000000e+00
1
Step 138000
Ar -6.978960e-03 0.000000e+00 0.000000e+00
1
Step 139000
Ar 3.480548e-02 0.000000e+00 0.000000e+00
1
Step 140000
Ar -5.873552e-02 0.000000e+00 0.000000e+00
1
Step 141000
Ar 2.166826e-02 0.000000e+00 0.000000e+00
1
Step 142000
Ar -1.886979e-02 0.000000e+00 0.000000e+00
1
Step 143000
Ar 6.711359e-02 0.000000e+00 0.000000e+00
1
Step 144000
Ar -1.701029e-03 0.000000e+00 0.000000e+00
1
Step 145000
Ar 1.318994e-02 0.000000e+00 0.000000e+00
1
Step 146000
Ar -4.656912e-02 0.000000e+00 0.000000e+00
1
Step 147000
Ar -4.061125e-02 0.000000e+00 0.000000e+00
1
Step 148000
Ar 1.718737e-02 0.000000e+00 0.000000e+00
1
Step 149000
Ar -2.347544e-02 0.000000e+00 0.000000e+00
1
Step 150000
Ar 1.480223e-02 0.000000e+00 0.000000e+00
1
Step 151000
Ar -1.452134e-04 0.000000e+00 0.000000e+00
1
Step 152000
Ar 5.305395e-02 0.000000e+00 0.000000e+00
1
Step 153000
Ar -2.202913e-02 0.000000e+00 0.000000e+00
1
Step 154000
Ar -2.375859e-02 0.000000e+00 0.000000e+00
1
Step 155000
Ar -6.025611e-02 0.000000e+00 0.000000e+00
1
Step 156000
Ar 7.732488e-02 0.000000e+00 0.000000e+00
1
Step 157000
Ar 6.745071e-03 0.000000e+00 0.000000e+00
1
Step 158000
Ar -4.383718e-02 0.000000e+00 0.000000e+00
1
Step 159000
Ar 4.367623e-02 0.000000e+00 0.000000e+00
1
Step 160000
Ar -2.475442e-03 0.000000e+00 0.000000e+00
1
Step 161000
Ar 4.354718e-03 0.000000e+00 0.000000e+00
1
Step 162000
Ar -7.540282e-03 0.000000e+00 0.000000e+00
1
Step 163000
Ar 7.025015e-02 0.000000e+00 0.000000e+00
1
Step 164000
Ar 2.312956e-02 0.000000e+00 0.000000e+00
1
Step 165000
Ar 1.762092e-02 0.000000e+00 0.000000e+00
1
Step 166000
Ar -2.522929e-02 0.000000e+00 0.000000e+00
1
Step 167000
Ar 4.818209e-02 0.000000e+00 0.000000e+00
1
Step 168000
Ar -4.729822e-02 0.000000e+00 0.000000e+00
1
Step 169000
Ar 1.992244e-02 0.000000e+00 0.000000e+00
1
Step 170000
Ar -3.601566e-02 0.000000e+00 0.000000e+00
1
Step 171000
Ar 5.050194e-03 0.000000e+00 0.000000e+00
1
Step 172000
Ar -2.966798e-02 0.000000e+00 0.000000e+00
1
Step 173000
Ar -3.165682e-03 0.000000e+00 0.000000e+00
1
Step 174000
Ar 1.849084e-02 0.000000e+00 0.000000e+00
1
Step 175000
Ar -2.446105e-02 0.000000e+00 0.000000e+00
1
Step 176000
Ar 3.534996e-02 0.000000e+00 0.000000e+00
1
Step 177000
Ar -1.370454e-02 0.000000e+00 0.000000e+00
1
Step 178000
Ar 3.884888e-02 0.000000e+00 0.000000e+00
1
Step 179000
Ar -3.478409e-02 0.000000e+00 0.000000e+00
1
Step 180000
Ar 1.040268e-02 0.000000e+00 0.000000e+00
1
Step 181000
Ar 1.559483e-02 0.000000e+00 0.000000e+00
1
Step 182000
Ar -3.098994e-02 0.000000e+00 0.000000e+00
1
Step 183000
Ar -2.206754e-02 0.000000e+00 0.000000e+00
1
Step 184000
Ar 5.220689e-02 0.000000e+00 0.000000e+00
1
Step 185000
Ar 5.327410e-03 0.000000e+00 0.000000e+00
1
Step 186000
Ar 8.967958e-02 0.000000e+00 0.000000e+00
1
Step 187000
Ar 5.360363e-03 0.000000e+00 0.000000e+00
1
Step 188000
Ar -8.929180e-03 0.000000e+00 0.000000e+00
1
Step 189000
Ar 7.899841e-03 0.000000e+00 0.000000e+00
1
Step 190000
Ar 7.247687e-03 0.000000e+00 0.000000e+00
1
Step 191000
Ar -1.441135e-02 0.000000e+00 0.000000e+00
1
Step 192000
Ar 2.565671e-02 0.000000e+00 0.000000e+00
1
Step 193000
Ar -7.962941e-03 0.000000e+00 0.000000e+00
1
Step 194000
Ar 7.806151e-02 0.000000e+00 0.000000e+00
1
Step 195000
Ar 6.383351e-02 0.000000e+00 0.000000e+00
1
Step 196000
Ar 7.103932e-03 0.000000e+00 0.000000e+00
1
Step 197000
Ar -1.158471e-02 0.000000e+00 0.000000e+00
1
Step 198000
Ar 6.803945e-03 0.000000e+00 0.000000e+00
1
Step 199000
Ar -2.044796e-02 0.000000e+00 0.000000e+00
1
Step 200000
Ar -3.981178e-02 0.000000e+00 0.000000e+00
1
Step 201000
Ar 5.231394e-02 0.000000e+00 0.000000e+00
1
Step 202000
Ar -5.890624e-03 0.000000e+00 0.000000e+00
1
Step 203000
Ar 3.519824e-02 0.000000e+00 0.000000e+00
1
Step 204000
Ar 4.356024e-03 0.000000e+00 0.000000e+00
1
Step 205000
Ar 2.323184e-02 0.000000e+00 0.000000e+00
1
Step 206000
Ar -1.643415e-02 0.000000e+00 0.000000e+00
1
Step 207000
Ar 5.354912e-02 0.000000e+00 0.000000e+00
1
Step 208000
Ar 2.704055e-02 0.000000e+00 0.000000e+00
1
Step 209000
Ar -1.143622e-02 0.000000e+00 0.000000e+00
1
Step 210000
Ar -3.403803e-02 0.000000e+00 0.000000e+00
1
Step 211000
Ar 7.655226e-02 0.000000e+00 0.000000e+00
1
Step 212000
Ar 4.913725e-02 0.000000e+00 0.000000e+00
1
Step 213000
Ar 8.722518e-03 0.000000e+00 0.000000e+00
1
Step 214000
Ar 4.519728e-02 0.000000e+00 0.000000e+00
1
Step 215000
Ar 4.039380e-02 0.000000e+00 0.000000e+00
1
Step 216000
Ar 2.728360e-02 0.000000e+00 0.000000e+00
1
Step 217000
Ar -4.142162e-02 0.000000e+00 0.000000e+00
1
Step 218000
Ar 1.962613e-02 0.000000e+00 0.000000e+00
1
Step 219000
Ar -3.370061e-02 0.000000e+00 0.000000e+00
1
Step 220000
Ar -2.978798e-02 0.000000e+00 0.000000e+00
1
Step 221000
Ar 5.171793e-02 0.000000e+00 0.000000e+00
1
Step 222000
Ar 8.893282e-02 0.000000e+00 0.000000e+00
1
Step 223000
Ar -4.610881e-02 0.000000e+00 0.000000e+00
1
Step 224000
Ar -4.911437e-02 0.000000e+00 0.000000e+00
1
Step 225000
Ar 3.273279e-02 0.000000e+00 0.000000e+00
1
Step 226000
Ar 1.708455e-02 0.000000e+00 0.000000e+00
1
Step 227000
Ar 9.696488e-03 0.000000e+00 0.000000e+00
1
Step 228000
Ar 6.781898e-03 0.000000e+00 0.000000e+00
1
Step 229000
Ar 1.879237e-02 0.000000e+00 0.000000e+00
1
Step 230000
Ar -4.284297e-02 0.000000e+00 0.000000e+00
1
Step 231000
Ar 3.342119e-02 0.000000e+00 0.000000e+00
1
Step 232000
Ar 1.775027e-02 0.000000e+00 0.000000e+00
1
Step 233000
Ar -1.331966e-02 0.000000e+00 0.000000e+00
1
Step 234000
Ar -1.597002e-02 0.000000e+00 0.000000e+00
1
Step 235000
Ar -2.758304e-02 0.000000e+00 0.000000e+00
1
Step 236000
Ar 4.755211e-02 0.000000e+00 0.000000e+00
1
Step 237000
Ar -7.065127e-02 0.000000e+00 0.000000e+00
1
Step 238000
Ar 7.577912e-03 0.000000e+00 0.000000e+00
1
Step 239000
Ar 1.424382e-02 0.000000e+00 0.000000e+00
1
Step 240000
Ar -2.818771e-02 0.000000e+00 0.000000e+00
1
Step 241000
Ar 1.367938e-02 0.000000e+00 0.000000e+00
1
Step 242000
Ar 5.138544e-03 0.000000e+00 0.000000e+00
1
Step 243000
Ar 2.385532e-02 0.000000e+00 0.000000e+00
1
Step 244000
Ar 3.147877e-02 0.000000e+00 0.000000e+00
1
Step 245000
Ar 2.854888e-03 0.000000e+00 0.000000e+00
1
Step 246000
Ar 4.214556e-02 0.000000e+00 0.000000e+00
1
Step 247000
Ar 2.539784e-02 0.000000e+00 0.000000e+00
1
Step 248000
Ar 4.276310e-02 0.000000e+00 0.000000e+00
1
Step 249000
Ar 1.744360e-02 0.000000e+00 0.000000e+00
1
Step 250000
Ar -2.067765e-02 0.000000e+00 0.000000e+00
1
Step 251000
Ar 5.413935e-02 0.000000e+00 0.000000e+00
1
Step 252000
Ar 9.170838e-04 0.000000e+00 0.000000e+00
1
Step 253000
Ar 3.196968e-02 0.000000e+00 0.000000e+00
1
Step 254000
Ar 3.906285e-02 0.000000e+00 0.000000e+00
1
Step 255000
Ar -1.423626e-02 0.000000e+00 0.000000e+00
1
Step 256000
Ar -1.595421e-02 0.000000e+00 0.000000e+00
1
Step 257000
Ar 2.413334e-02 0.000000e+00 0.000000e+00
1
Step 258000
Ar -2.641233e-03 0.000000e+00 0.000000e+00
1
Step 259000
Ar -5.604959e-04 0.000000e+00 0.000000e+00
1
Step 260000
Ar 1.605683e-02 0.000000e+00 0.000000e+00
1
Step 261000
Ar -2.915219e-03 0.000000e+00 0.000000e+00
1
Step 262000
Ar -9.037480e-03 0.000000e+00 0.000000e+00
1
Step 263000
Ar -6.425419e-03 0.000000e+00 0.000000e+00
1
Step 264000
Ar -2.976126e-03 0.000000e+00 0.000000e+00
1
Step 265000
Ar -1.958071e-03 0.000000e+00 0.000000e+00
1
Step 266000
Ar -5.237393e-02 0.000000e+00 0.000000e+00
1
Step 267000
Ar 4.566185e-03 0.000000e+00 0.000000e+00
1
Step 268000
Ar 5.646632e-02 0.000000e+00 0.000000e+00
1
Step 269000
Ar 3.868868e-02 0.000000e+00 0.000000e+00
1
Step 270000
Ar -3.751362e-03 0.000000e+00 0.000000e+00
1
Step 271000
Ar 1.510642e-02 0.000000e+00 0.000000e+00
1
Step 272000
Ar 2.331908e-02 0.000000e+00 0.000000e+00
1
Step 273000
Ar 3.967314e-02 0.000000e+00 0.000000e+00
1
Step 274000
Ar 1.414130e-02 0.000000e+00 0.000000e+00
1
Step 275000
Ar 7.814948e-03 0.000000e+00 0.000000e+00
1
Step 276000
Ar 2.061062e-02 0.000000e+00 0.000000e+00
1
Step 277000
Ar 7.842056e-02 0.000000e+00 0.000000e+00
1
Step 278000
Ar -1.203328e-02 0.000000e+00 0.000000e+00
1
Step 279000
Ar -5.971082e-02 0.000000e+00 0.000000e+00
1
Step 280000
Ar -1.029983e-02 0.000000e+00 0.000000e+00
1
Step 281000
Ar 2.920075e-02 0.000000e+00 0.000000e+00
1
Step 282000
Ar -7.308954e-03 0.000000e+00 0.000000e+00
1
Step 283000
Ar 3.346971e-04 0.000000e+00 0.000000e+00
1
Step 284000
Ar 1.410065e-02 0.000000e+00 0.000000e+00
1
Step 285000
Ar -1.114418e-02 0.000000e+00 0.000000e+00
1
Step 286000
Ar 4.427432e-03 0.000000e+00 0.000000e+00
1
Step 287000
Ar 1.035588e-02 0.000000e+00 0.000000e+00
1
Step 288000
Ar -1.619183e-02 0.000000e+00 0.000000e+00
1
Step 289000
Ar -4.685306e-02 0.000000e+00 0.000000e+00
1
Step 290000
Ar -2.310269e-03 0.000000e+00 0.000000e+00
1
Step 291000
Ar 2.696134e-02 0.000000e+00 0.000000e+00
1
Step 292000
Ar -2.730165e-02 0.000000e+00 0.000000e+00
1
Step 293000
Ar -3.007181e-02 0.000000e+00 0.000000e+00
1
Step 294000
Ar 1.290209e-02 0.000000e+00 0.000000e+00
1
Step 295000
Ar -9.188455e-03 0.000000e+00 0.000000e+00
1
Step 296000
Ar 1.387119e-02 0.000000e+00 0.000000e+00
1
Step 297000
Ar 2.062938e-02 0.000000e+00 0.000000e+00
1
Step 298000
Ar 3.484603e-02 0.000000e+00 0.000000e+00
1
Step 299000
Ar -2.902039e-02 0.000000e+00 0.000000e+00
1
Step 300000
Ar -2.776721e-02 0.000000e+00 0.000000e+00
1
Step 301000
Ar -4.533151e-02 0.000000e+00 0.000000e+00
1
Step 302000
Ar 6.243962e-02 0.000000e+00 0.000000e+00
1
Step 303000
Ar 1.382390e-02 0.000000e+00 0.000000e+00
1
Step 304000
Ar 3.889134e-02 0.000000e+00 0.000000e+00
1
Step 305000
Ar 4.697429e-03 0.000000e+00 0.000000e+00
1
Step 306000
Ar -7.505911e-03 0.000000e+00 0.000000e+00
1
Step 307000
Ar -3.573694e-02 0.000000e+00 0.000000e+00
1
Step 308000
Ar -3.776219e-02 0.000000e+00 0.000000e+00
1
Step 309000
Ar -3.434724e-03 0.000000e+00 0.000000e+00
1
Step 310000
Ar -2.959994e-02 0.000000e+00 0.000000e+00
1
Step 311000
Ar -7.810397e-03 0.000000e+00 0.000000e+00
1
Step 312000
Ar -5.351108e-02 0.000000e+00 0.000000e+00
1
Step 313000
Ar -1.332564e-02 0.000000e+00 0.000000e+00
1
Step 314000
Ar -1.977073e-02 0.000000e+00 0.000000e+00
1
Step 315000
Ar -5.758709e-02 0.000000e+00 0.000000e+00
1
Step 316000
Ar -8.564711e-03 0.000000e+00 0.000000e+00
1
Step 317000
Ar -2.415403e-03 0.000000e+00 0.000000e+00
1
Step 318000
Ar -1.006621e-02 0.000000e+00 0.000000e+00
1
Step 319000
Ar -9.506850e-04 0.000000e+00 0.000000e+00
1
Step 320000
Ar 4.265037e-02 0.000000e+00 0.000000e+00
1
Step 321000
Ar 2.454017e-02 0.000000e+00 0.000000e+00
1
Step 322000
Ar -4.291874e-03 0.000000e+00 0.000000e+00
1
Step 323000
Ar 4.674033e-03 0.000000e+00 0.000000e+00
1
Step 324000
Ar -9.021693e-03 0.000000e+00 0.000000e+00
1
Step 325000
Ar -1.636372e-02 0.000000e+00 0.000000e+00
1
Step 326000
Ar -3.758292e-02 0.000000e+00 0.000000e+00
1
Step 327000
Ar 7.693506e-02 0.000000e+00 0.000000e+00
1
Step 328000
Ar -4.949098e-02 0.000000e+00 0.000000e+00
1
Step 329000
Ar 4.641617e-02 0.000000e+00 0.000000e+00
1
Step 330000
Ar -1.290690e-03 0.000000e+00 0.000000e+00
1
Step 331000
Ar -8.779407e-03 0.000000e+00 0.000000e+00
1
Step 332000
Ar -2.145616e-02 0.000000e+00 0.000000e+00
1
Step 333000
Ar -6.408940e-04 0.000000e+00 0.000000e+00
1
Step 334000
Ar 5.401240e-03 0.000000e+00 0.000000e+00
1
Step 335000
Ar -5.910221e-02 0.000000e+00 0.000000e+00
1
Step 336000
Ar -2.940731e-02 0.000000e+00 0.000000e+00
1
Step 337000
Ar -4.433329e-02 0.000000e+00 0.000000e+00
1
Step 338000
Ar 3.025179e-02 0.000000e+00 0.000000e+00
1
Step 339000
Ar -2.189154e-02 0.000000e+00 0.000000e+00
1
Step 340000
Ar 1.892100e-02 0.000000e+00 0.000000e+00
1
Step 341000
Ar 3.369464e-02 0.000000e+00 0.000000e+00
1
Step 342000
Ar -1.626844e-02 0.000000e+00 0.000000e+00
1
Step 343000
Ar 1.111573e-02 0.000000e+00 0.000000e+00
1
Step 344000
Ar -6.679715e-03 0.000000e+00 0.000000e+00
1
Step 345000
Ar -7.358230e-03 0.000000e+00 0.000000e+00
1
Step 346000
Ar -2.176825e-02 0.000000e+00 0.000000e+00
1
Step 347000
Ar -3.159210e-02 0.000000e+00 0.000000e+00
1
Step 348000
Ar -1.373333e-02 0.000000e+00 0.000000e+00
1
Step 349000
Ar 4.152639e-03 0.000000e+00 0.000000e+00
1
Step 350000
Ar -4.092421e-02 0.000000e+00 0.000000e+00
1
Step 351000
Ar -3.310825e-03 0.000000e+00 0.000000e+00
1
Step 352000
Ar -7.582971e-03 0.000000e+00 0.000000e+00
1
Step 353000
Ar -5.320309e-02 0.000000e+00 0.000000e+00
1
Step 354000
Ar 6.785932e-03 0.000000e+00 0.000000e+00
1
Step 355000
Ar -5.132683e-03 0.000000e+00 0.000000e+00
1
Step 356000
Ar 5.517579e-03 0.000000e+00 0.000000e+00
1
Step 357000
Ar 9.482182e-03 0.000000e+00 0.000000e+00
1
Step 358000
Ar -2.659031e-03 0.000000e+00 0.000000e+00
1
Step 359000
Ar -5.187675e-02 0.000000e+00 0.000000e+00
1
Step 360000
Ar -1.785948e-02 0.000000e+00 0.000000e+00
1
Step 361000
Ar 2.954585e-02 0.000000e+00 0.000000e+00
1
Step 362000
Ar -3.528041e-02 0.000000e+00 0.000000e+00
1
Step 363000
Ar -3.418408e-02 0.000000e+00 0.000000e+00
1
Step 364000
Ar 4.474675e-02 0.000000e+00 0.000000e+00
1
Step 365000
Ar 3.204715e-02 0.000000e+00 0.000000e+00
1
Step 366000
Ar -3.518096e-02 0.000000e+00 0.000000e+00
1
Step 367000
Ar -4.773372e-05 0.000000e+00 0.000000e+00
1
Step 368000
Ar -1.509499e-02 0.000000e+00 0.000000e+00
1
Step 369000
Ar 3.632248e-02 0.000000e+00 0.000000e+00
1
Step 370000
Ar 3.150233e-02 0.000000e+00 0.000000e+00
1
Step 371000
Ar -5.453277e-03 0.000000e+00 0.000000e+00
1
Step 372000
Ar 3.864273e-02 0.000000e+00 0.000000e+00
1
Step 373000
Ar 2.740432e-02 0.000000e+00 0.000000e+00
1
Step 374000
Ar 3.467588e-03 0.000000e+00 0.000000e+00
1
Step 375000
Ar -4.498899e-02 0.000000e+00 0.000000e+00
1
Step 376000
Ar -3.694610e-03 0.000000e+00 0.000000e+00
1
Step 377000
Ar -4.481153e-02 0.000000e+00 0.000000e+00
1
Step 378000
Ar -5.244762e-02 0.000000e+00 0.000000e+00
1
Step 379000
Ar 6.235564e-02 0.000000e+00 0.000000e+00
1
Step 380000
Ar -2.902723e-02 0.000000e+00 0.000000e+00
1
Step 381000
Ar 2.509071e-02 0.000000e+00 0.000000e+00
1
Step 382000
Ar -6.293901e-03 0.000000e+00 0.000000e+00
1
Step 383000
Ar -1.266952e-03 0.000000e+00 0.000000e+00
1
Step 384000
Ar 9.429062e-04 0.000000e+00 0.000000e+00
1
Step 385000
Ar -1.304298e-02 0.000000e+00 0.000000e+00
1
Step 386000
Ar 4.551180e-02 0.000000e+00 0.000000e+00
1
Step 387000
Ar -2.927373e-02 0.000000e+00 0.000000e+00
1
Step 388000
Ar 3.168848e-02 0.000000e+00 0.000000e+00
1
Step 389000
Ar -9.953791e-03 0.000000e+00 0.000000e+00
1
Step 390000
Ar -1.255533e-02 0.000000e+00 0.000000e+00
1
Step 391000
Ar -4.011727e-02 0.000000e+00 0.000000e+00
1
Step 392000
Ar -4.376567e-02 0.000000e+00 0.000000e+00
1
Step 393000
Ar 1.743311e-02 0.000000e+00 0.000000e+00
1
Step 394000
Ar 8.489781e-03 0.000000e+00 0.000000e+00
1
Step 395000
Ar 4.158592e-02 0.000000e+00 0.000000e+00
1
Step 396000
Ar -3.585925e-03 0.000000e+00 0.000000e+00
1
Step 397000
Ar 6.546699e-02 0.000000e+00 0.000000e+00
1
Step 398000
Ar -1.278757e-02 0.000000e+00 0.000000e+00
1
Step 399000
Ar 3.142047e-02 0.000000e+00 0.000000e+00
1
Step 400000
Ar 7.628356e-02 0.000000e+00 0.000000e+00
1
Step 401000
Ar -1.730403e-02 0.000000e+00 0.000000e+00
1
Step 402000
Ar -4.076864e-02 0.000000e+00 0.000000e+00
1
Step 403000
Ar -1.092517e-02 0.000000e+00 0.000000e+00
1
Step 404000
Ar -4.565341e-02 0.000000e+00 0.000000e+00
1
Step 405000
Ar 1.111348e-01 0.000000e+00 0.000000e+00
1
Step 406000
Ar -2.857247e-02 0.000000e+00 0.000000e+00
1
Step 407000
Ar 1.914562e-02 0.000000e+00 0.000000e+00
1
Step 408000
Ar 7.351886e-02 0.000000e+00 0.000000e+00
1
Step 409000
Ar -8.342340e-03 0.000000e+00 0.000000e+00
1
Step 410000
Ar -2.798167e-03 0.000000e+00 0.000000e+00
1
Step 411000
Ar -1.628860e-02 0.000000e+00 0.000000e+00
1
Step 412000
Ar -5.221589e-03 0.000000e+00 0.000000e+00
1
Step 413000
Ar 2.106995e-02 0.000000e+00 0.000000e+00
1
Step 414000
Ar 8.926583e-03 0.000000e+00 0.000000e+00
1
Step 415000
Ar -2.853772e-03 0.000000e+00 0.000000e+00
1
Step 416000
Ar 1.758813e-02 0.000000e+00 0.000000e+00
1
Step 417000
Ar -2.256336e-02 0.000000e+00 0.000000e+00
1
Step 418000
Ar 6.212030e-03 0.000000e+00 0.000000e+00
1
Step 419000
Ar -1.299522e-03 0.000000e+00 0.000000e+00
1
Step 420000
Ar -1.442568e-02 0.000000e+00 0.000000e+00
1
Step 421000
Ar 2.293250e-02 0.000000e+00 0.000000e+00
1
Step 422000
Ar -1.162067e-02 0.000000e+00 0.000000e+00
1
Step 423000
Ar -3.406023e-02 0.000000e+00 0.000000e+00
1
Step 424000
Ar 2.747448e-03 0.000000e+00 0.000000e+00
1
Step 425000
Ar 1.257835e-02 0.000000e+00 0.000000e+00
1
Step 426000
Ar -2.087518e-02 0.000000e+00 0.000000e+00
1
Step 427000
Ar 6.042631e-03 0.000000e+00 0.000000e+00
1
Step 428000
Ar -4.590780e-03 0.000000e+00 0.000000e+00
1
Step 429000
Ar 1.212057e-02 0.000000e+00 0.000000e+00
1
Step 430000
Ar 9.398223e-03 0.000000e+00 0.000000e+00
1
Step 431000
Ar 7.093066e-03 0.000000e+00 0.000000e+00
1
Step 432000
Ar 3.083909e-02 0.000000e+00 0.000000e+00
1
Step 433000
Ar 2.032920e-02 0.000000e+00 0.000000e+00
1
Step 434000
Ar 2.179475e-02 0.000000e+00 0.000000e+00
1
Step 435000
Ar 3.880429e-02 0.000000e+00 0.000000e+00
1
Step 436000
Ar 2.190525e-02 0.000000e+00 0.000000e+00
1
Step 437000
Ar 6.893170e-02 0.000000e+00 0.000000e+00
1
Step 438000
Ar -1.415059e-02 0.000000e+00 0.000000e+00
1
Step 439000
Ar 7.478224e-03 0.000000e+00 0.000000e+00
1
Step 440000
Ar -4.019029e-02 0.000000e+00 0.000000e+00
1
Step 441000
Ar 6.725946e-02 0.000000e+00 0.000000e+00
1
Step 442000
Ar -1.734226e-02 0.000000e+00 0.000000e+00
1
Step 443000
Ar 5.259049e-04 0.000000e+00 0.000000e+00
1
Step 444000
Ar -1.334744e-02 0.000000e+00 0.000000e+00
1
Step 445000
Ar 1.335481e-02 0.000000e+00 0.000000e+00
1
Step 446000
Ar 1.073183e-02 0.000000e+00 0.000000e+00
1
Step 447000
Ar -4.876178e-02 0.000000e+00 0.000000e+00
1
Step 448000
Ar -3.264711e-02 0.000000e+00 0.000000e+00
1
Step 449000
Ar -1.793197e-03 0.000000e+00 0.000000e+00
1
Step 450000
Ar 1.582552e-03 0.000000e+00 0.000000e+00
1
Step 451000
Ar 1.778127e-03 0.000000e+00 0.000000e+00
1
Step 452000
Ar 6.372998e-02 0.000000e+00 0.000000e+00
1
Step 453000
Ar -2.783190e-02 0.000000e+00 0.000000e+00
1
Step 454000
Ar -1.157335e-02 0.000000e+00 0.000000e+00
1
Step 455000
Ar 1.111010e-02 0.000000e+00 0.000000e+00
1
Step 456000
Ar 1.823030e-02 0.000000e+00 0.000000e+00
1
Step 457000
Ar -9.607802e-03 0.000000e+00 0.000000e+00
1
Step 458000
Ar 2.176435e-02 0.000000e+00 0.000000e+00
1
Step 459000
Ar 2.961599e-02 0.000000e+00 0.000000e+00
1
Step 460000
Ar -4.017437e-02 0.000000e+00 0.000000e+00
1
Step 461000
Ar 4.678096e-03 0.000000e+00 0.000000e+00
1
Step 462000
Ar 1.455333e-02 0.000000e+00 0.000000e+00
1
Step 463000
Ar 2.134023e-02 0.000000e+00 0.000000e+00
1
Step 464000
Ar -3.289747e-02 0.000000e+00 0.000000e+00
1
Step 465000
Ar -4.271569e-02 0.000000e+00 0.000000e+00
1
Step 466000
Ar -3.211897e-02 0.000000e+00 0.000000e+00
1
Step 467000
Ar -2.667931e-02 0.000000e+00 0.000000e+00
1
Step 468000
Ar -1.860487e-03 0.000000e+00 0.000000e+00
1
Step 469000
Ar 8.999661e-03 0.000000e+00 0.000000e+00
1
Step 470000
Ar 6.967630e-03 0.000000e+00 0.000000e+00
1
Step 471000
Ar 3.389119e-04 0.000000e+00 0.000000e+00
1
Step 472000
Ar -5.240967e-03 0.000000e+00 0.000000e+00
1
Step 473000
Ar -4.349408e-02 0.000000e+00 0.000000e+00
1
Step 474000
Ar -2.872490e-02 0.000000e+00 0.000000e+00
1
Step 475000
Ar -2.409222e-02 0.000000e+00 0.000000e+00
1
Step 476000
Ar 3.214993e-02 0.000000e+00 0.000000e+00
1
Step 477000
Ar 4.888206e-03 0.000000e+00 0.000000e+00
1
Step 478000
Ar -1.230603e-02 0.000000e+00 0.000000e+00
1
Step 479000
Ar 6.794970e-03 0.000000e+00 0.000000e+00
1
Step 480000
Ar 1.198248e-02 0.000000e+00 0.000000e+00
1
Step 481000
Ar -3.933253e-03 0.000000e+00 0.000000e+00
1
Step 482000
Ar -1.484145e-02 0.000000e+00 0.000000e+00
1
Step 483000
Ar -5.172104e-03 0.000000e+00 0.000000e+00
1
Step 484000
Ar 3.812029e-02 0.000000e+00 0.000000e+00
1
Step 485000
Ar 2.767656e-02 0.000000e+00 0.000000e+00
1
Step 486000
Ar 2.341640e-02 0.000000e+00 0.000000e+00
1
Step 487000
Ar -6.119066e-02 0.000000e+00 0.000000e+00
1
Step 488000
Ar 4.015392e-02 0.000000e+00 0.000000e+00
1
Step 489000
Ar 6.613653e-02 0.000000e+00 0.000000e+00
1
Step 490000
Ar -5.025773e-02 0.000000e+00 0.000000e+00
1
Step 491000
Ar 3.050419e-02 0.000000e+00 0.000000e+00
1
Step 492000
Ar 3.491475e-02 0.000000e+00 0.000000e+00
1
Step 493000
Ar -1.461866e-02 0.000000e+00 0.000000e+00
1
Step 494000
Ar 1.673447e-02 0.000000e+00 0.000000e+00
1
Step 495000
Ar 4.772695e-02 0.000000e+00 0.000000e+00
1
Step 496000
Ar -3.133770e-02 0.000000e+00 0.000000e+00
1
Step 497000
Ar 1.567733e-02 0.000000e+00 0.000000e+00
1
Step 498000
Ar 5.912125e-03 0.000000e+00 0.000000e+00
1
Step 499000
Ar -4.950097e-02 0.000000e+00 0.000000e+00
